
---------- Begin Simulation Statistics ----------
sim_seconds                                  0.570354                       # Number of seconds simulated
sim_ticks                                570354489000                       # Number of ticks simulated
final_tick                               570354489000                       # Number of ticks from beginning of simulation (restored from checkpoints and never reset)
sim_freq                                 1000000000000                       # Frequency of simulated ticks
host_inst_rate                                 277854                       # Simulator instruction rate (inst/s)
host_op_rate                                   453135                       # Simulator op (including micro ops) rate (op/s)
host_tick_rate                              636033663                       # Simulator tick rate (ticks/s)
host_mem_usage                                 659600                       # Number of bytes of host memory used
host_seconds                                   896.74                       # Real time elapsed on the host
sim_insts                                   249161743                       # Number of instructions simulated
sim_ops                                     406343060                       # Number of ops (including micro ops) simulated
system.voltage_domain.voltage                       1                       # Voltage in Volts
system.clk_domain.clock                          1000                       # Clock period in ticks
system.mem_ctrls.pwrStateResidencyTicks::UNDEFINED 570354489000                       # Cumulative time (in ticks) in various power states
system.mem_ctrls.bytes_read::cpu.inst           22784                       # Number of bytes read from this memory
system.mem_ctrls.bytes_read::cpu.data        14442880                       # Number of bytes read from this memory
system.mem_ctrls.bytes_read::total           14465664                       # Number of bytes read from this memory
system.mem_ctrls.bytes_inst_read::cpu.inst        22784                       # Number of instructions bytes read from this memory
system.mem_ctrls.bytes_inst_read::total         22784                       # Number of instructions bytes read from this memory
system.mem_ctrls.bytes_written::writebacks     12754880                       # Number of bytes written to this memory
system.mem_ctrls.bytes_written::total        12754880                       # Number of bytes written to this memory
system.mem_ctrls.num_reads::cpu.inst              356                       # Number of read requests responded to by this memory
system.mem_ctrls.num_reads::cpu.data           225670                       # Number of read requests responded to by this memory
system.mem_ctrls.num_reads::total              226026                       # Number of read requests responded to by this memory
system.mem_ctrls.num_writes::writebacks        199295                       # Number of write requests responded to by this memory
system.mem_ctrls.num_writes::total             199295                       # Number of write requests responded to by this memory
system.mem_ctrls.bw_read::cpu.inst              39947                       # Total read bandwidth from this memory (bytes/s)
system.mem_ctrls.bw_read::cpu.data           25322638                       # Total read bandwidth from this memory (bytes/s)
system.mem_ctrls.bw_read::total              25362585                       # Total read bandwidth from this memory (bytes/s)
system.mem_ctrls.bw_inst_read::cpu.inst         39947                       # Instruction read bandwidth from this memory (bytes/s)
system.mem_ctrls.bw_inst_read::total            39947                       # Instruction read bandwidth from this memory (bytes/s)
system.mem_ctrls.bw_write::writebacks        22363075                       # Write bandwidth from this memory (bytes/s)
system.mem_ctrls.bw_write::total             22363075                       # Write bandwidth from this memory (bytes/s)
system.mem_ctrls.bw_total::writebacks        22363075                       # Total bandwidth to/from this memory (bytes/s)
system.mem_ctrls.bw_total::cpu.inst             39947                       # Total bandwidth to/from this memory (bytes/s)
system.mem_ctrls.bw_total::cpu.data          25322638                       # Total bandwidth to/from this memory (bytes/s)
system.mem_ctrls.bw_total::total             47725659                       # Total bandwidth to/from this memory (bytes/s)
system.pwrStateResidencyTicks::UNDEFINED 570354489000                       # Cumulative time (in ticks) in various power states
system.cpu_voltage_domain.voltage                   1                       # Voltage in Volts
system.cpu_clk_domain.clock                       500                       # Clock period in ticks
system.cpu.dtb.walker.pwrStateResidencyTicks::UNDEFINED 570354489000                       # Cumulative time (in ticks) in various power states
system.cpu.dtb.rdAccesses                   118033996                       # TLB accesses on read requests
system.cpu.dtb.wrAccesses                    31915277                       # TLB accesses on write requests
system.cpu.dtb.rdMisses                          2738                       # TLB misses on read requests
system.cpu.dtb.wrMisses                           498                       # TLB misses on write requests
system.cpu.apic_clk_domain.clock                 8000                       # Clock period in ticks
system.cpu.interrupts.pwrStateResidencyTicks::UNDEFINED 570354489000                       # Cumulative time (in ticks) in various power states
system.cpu.itb.walker.pwrStateResidencyTicks::UNDEFINED 570354489000                       # Cumulative time (in ticks) in various power states
system.cpu.itb.rdAccesses                           0                       # TLB accesses on read requests
system.cpu.itb.wrAccesses                   335229892                       # TLB accesses on write requests
system.cpu.itb.rdMisses                             0                       # TLB misses on read requests
system.cpu.itb.wrMisses                            36                       # TLB misses on write requests
system.cpu.workload.numSyscalls                     9                       # Number of system calls
system.cpu.pwrStateResidencyTicks::ON    570354489000                       # Cumulative time (in ticks) in various power states
system.cpu.numCycles                       1140708978                       # number of cpu cycles simulated
system.cpu.numWorkItemsStarted                      0                       # number of work items this cpu started
system.cpu.numWorkItemsCompleted                    0                       # number of work items this cpu completed
system.cpu.committedInsts                   249161743                       # Number of instructions committed
system.cpu.committedOps                     406343060                       # Number of ops (including micro ops) committed
system.cpu.num_int_alu_accesses             403870596                       # Number of integer alu accesses
system.cpu.num_fp_alu_accesses                   1951                       # Number of float alu accesses
system.cpu.num_vec_alu_accesses                     0                       # Number of vector alu accesses
system.cpu.num_func_calls                     4727228                       # number of times a function call or return occured
system.cpu.num_conditional_control_insts     23353245                       # number of instructions that are conditional controls
system.cpu.num_int_insts                    403870596                       # number of integer instructions
system.cpu.num_fp_insts                          1951                       # number of float instructions
system.cpu.num_vec_insts                            0                       # number of vector instructions
system.cpu.num_int_register_reads           905631487                       # number of times the integer registers were read
system.cpu.num_int_register_writes          351334403                       # number of times the integer registers were written
system.cpu.num_fp_register_reads                 3771                       # number of times the floating registers were read
system.cpu.num_fp_register_writes                1484                       # number of times the floating registers were written
system.cpu.num_vec_register_reads                   0                       # number of times the vector registers were read
system.cpu.num_vec_register_writes                  0                       # number of times the vector registers were written
system.cpu.num_cc_register_reads            149131748                       # number of times the CC registers were read
system.cpu.num_cc_register_writes           139496769                       # number of times the CC registers were written
system.cpu.num_mem_refs                     149949269                       # number of memory refs
system.cpu.num_load_insts                   118033993                       # Number of load instructions
system.cpu.num_store_insts                   31915276                       # Number of store instructions
system.cpu.num_idle_cycles                          0                       # Number of idle cycles
system.cpu.num_busy_cycles                 1140708978                       # Number of busy cycles
system.cpu.not_idle_fraction                        1                       # Percentage of non-idle cycles
system.cpu.idle_fraction                            0                       # Percentage of idle cycles
system.cpu.Branches                          30316576                       # Number of branches fetched
system.cpu.op_class::No_OpClass                744058      0.18%      0.18% # Class of executed instruction
system.cpu.op_class::IntAlu                 251172927     61.81%     62.00% # Class of executed instruction
system.cpu.op_class::IntMult                        4      0.00%     62.00% # Class of executed instruction
system.cpu.op_class::IntDiv                   4475842      1.10%     63.10% # Class of executed instruction
system.cpu.op_class::FloatAdd                      10      0.00%     63.10% # Class of executed instruction
system.cpu.op_class::FloatCmp                       0      0.00%     63.10% # Class of executed instruction
system.cpu.op_class::FloatCvt                       0      0.00%     63.10% # Class of executed instruction
system.cpu.op_class::FloatMult                      0      0.00%     63.10% # Class of executed instruction
system.cpu.op_class::FloatMultAcc                   0      0.00%     63.10% # Class of executed instruction
system.cpu.op_class::FloatDiv                       0      0.00%     63.10% # Class of executed instruction
system.cpu.op_class::FloatMisc                      0      0.00%     63.10% # Class of executed instruction
system.cpu.op_class::FloatSqrt                      0      0.00%     63.10% # Class of executed instruction
system.cpu.op_class::SimdAdd                      374      0.00%     63.10% # Class of executed instruction
system.cpu.op_class::SimdAddAcc                     0      0.00%     63.10% # Class of executed instruction
system.cpu.op_class::SimdAlu                       68      0.00%     63.10% # Class of executed instruction
system.cpu.op_class::SimdCmp                        0      0.00%     63.10% # Class of executed instruction
system.cpu.op_class::SimdCvt                      108      0.00%     63.10% # Class of executed instruction
system.cpu.op_class::SimdMisc                     214      0.00%     63.10% # Class of executed instruction
system.cpu.op_class::SimdMult                       0      0.00%     63.10% # Class of executed instruction
system.cpu.op_class::SimdMultAcc                    0      0.00%     63.10% # Class of executed instruction
system.cpu.op_class::SimdShift                    186      0.00%     63.10% # Class of executed instruction
system.cpu.op_class::SimdShiftAcc                   0      0.00%     63.10% # Class of executed instruction
system.cpu.op_class::SimdSqrt                       0      0.00%     63.10% # Class of executed instruction
system.cpu.op_class::SimdFloatAdd                   0      0.00%     63.10% # Class of executed instruction
system.cpu.op_class::SimdFloatAlu                   0      0.00%     63.10% # Class of executed instruction
system.cpu.op_class::SimdFloatCmp                   0      0.00%     63.10% # Class of executed instruction
system.cpu.op_class::SimdFloatCvt                   0      0.00%     63.10% # Class of executed instruction
system.cpu.op_class::SimdFloatDiv                   0      0.00%     63.10% # Class of executed instruction
system.cpu.op_class::SimdFloatMisc                  0      0.00%     63.10% # Class of executed instruction
system.cpu.op_class::SimdFloatMult                  0      0.00%     63.10% # Class of executed instruction
system.cpu.op_class::SimdFloatMultAcc               0      0.00%     63.10% # Class of executed instruction
system.cpu.op_class::SimdFloatSqrt                  0      0.00%     63.10% # Class of executed instruction
system.cpu.op_class::MemRead                118033933     29.05%     92.15% # Class of executed instruction
system.cpu.op_class::MemWrite                31914857      7.85%    100.00% # Class of executed instruction
system.cpu.op_class::FloatMemRead                  60      0.00%    100.00% # Class of executed instruction
system.cpu.op_class::FloatMemWrite                419      0.00%    100.00% # Class of executed instruction
system.cpu.op_class::IprAccess                      0      0.00%    100.00% # Class of executed instruction
system.cpu.op_class::InstPrefetch                   0      0.00%    100.00% # Class of executed instruction
system.cpu.op_class::total                  406343060                       # Class of executed instruction
system.cpu.dcache.tags.pwrStateResidencyTicks::UNDEFINED 570354489000                       # Cumulative time (in ticks) in various power states
system.cpu.dcache.tags.tagsinuse           511.652154                       # Cycle average of tags in use
system.cpu.dcache.tags.total_refs           149949273                       # Total number of references to valid blocks.
system.cpu.dcache.tags.sampled_refs            352173                       # Sample count of references to valid blocks.
system.cpu.dcache.tags.avg_refs            425.782990                       # Average number of references to valid blocks.
system.cpu.dcache.tags.warmup_cycle            759000                       # Cycle when the warmup percentage was hit.
system.cpu.dcache.tags.occ_blocks::cpu.data   511.652154                       # Average occupied blocks per requestor
system.cpu.dcache.tags.occ_percent::cpu.data     0.999321                       # Average percentage of cache occupancy
system.cpu.dcache.tags.occ_percent::total     0.999321                       # Average percentage of cache occupancy
system.cpu.dcache.tags.occ_task_id_blocks::1024          512                       # Occupied blocks per task id
system.cpu.dcache.tags.age_task_id_blocks_1024::0           12                       # Occupied blocks per task id
system.cpu.dcache.tags.age_task_id_blocks_1024::1           16                       # Occupied blocks per task id
system.cpu.dcache.tags.age_task_id_blocks_1024::2           54                       # Occupied blocks per task id
system.cpu.dcache.tags.age_task_id_blocks_1024::3          430                       # Occupied blocks per task id
system.cpu.dcache.tags.occ_task_id_percent::1024            1                       # Percentage of cache occupancy per task id
system.cpu.dcache.tags.tag_accesses         300250719                       # Number of tag accesses
system.cpu.dcache.tags.data_accesses        300250719                       # Number of data accesses
system.cpu.dcache.pwrStateResidencyTicks::UNDEFINED 570354489000                       # Cumulative time (in ticks) in various power states
system.cpu.dcache.ReadReq_hits::cpu.data    117715101                       # number of ReadReq hits
system.cpu.dcache.ReadReq_hits::total       117715101                       # number of ReadReq hits
system.cpu.dcache.WriteReq_hits::cpu.data     31862468                       # number of WriteReq hits
system.cpu.dcache.WriteReq_hits::total       31862468                       # number of WriteReq hits
system.cpu.dcache.demand_hits::cpu.data     149577569                       # number of demand (read+write) hits
system.cpu.dcache.demand_hits::total        149577569                       # number of demand (read+write) hits
system.cpu.dcache.overall_hits::cpu.data    149577569                       # number of overall hits
system.cpu.dcache.overall_hits::total       149577569                       # number of overall hits
system.cpu.dcache.ReadReq_misses::cpu.data       318895                       # number of ReadReq misses
system.cpu.dcache.ReadReq_misses::total        318895                       # number of ReadReq misses
system.cpu.dcache.WriteReq_misses::cpu.data        52809                       # number of WriteReq misses
system.cpu.dcache.WriteReq_misses::total        52809                       # number of WriteReq misses
system.cpu.dcache.demand_misses::cpu.data       371704                       # number of demand (read+write) misses
system.cpu.dcache.demand_misses::total         371704                       # number of demand (read+write) misses
system.cpu.dcache.overall_misses::cpu.data       371704                       # number of overall misses
system.cpu.dcache.overall_misses::total        371704                       # number of overall misses
system.cpu.dcache.ReadReq_miss_latency::cpu.data  75298166000                       # number of ReadReq miss cycles
system.cpu.dcache.ReadReq_miss_latency::total  75298166000                       # number of ReadReq miss cycles
system.cpu.dcache.WriteReq_miss_latency::cpu.data  10183386500                       # number of WriteReq miss cycles
system.cpu.dcache.WriteReq_miss_latency::total  10183386500                       # number of WriteReq miss cycles
system.cpu.dcache.demand_miss_latency::cpu.data  85481552500                       # number of demand (read+write) miss cycles
system.cpu.dcache.demand_miss_latency::total  85481552500                       # number of demand (read+write) miss cycles
system.cpu.dcache.overall_miss_latency::cpu.data  85481552500                       # number of overall miss cycles
system.cpu.dcache.overall_miss_latency::total  85481552500                       # number of overall miss cycles
system.cpu.dcache.ReadReq_accesses::cpu.data    118033996                       # number of ReadReq accesses(hits+misses)
system.cpu.dcache.ReadReq_accesses::total    118033996                       # number of ReadReq accesses(hits+misses)
system.cpu.dcache.WriteReq_accesses::cpu.data     31915277                       # number of WriteReq accesses(hits+misses)
system.cpu.dcache.WriteReq_accesses::total     31915277                       # number of WriteReq accesses(hits+misses)
system.cpu.dcache.demand_accesses::cpu.data    149949273                       # number of demand (read+write) accesses
system.cpu.dcache.demand_accesses::total    149949273                       # number of demand (read+write) accesses
system.cpu.dcache.overall_accesses::cpu.data    149949273                       # number of overall (read+write) accesses
system.cpu.dcache.overall_accesses::total    149949273                       # number of overall (read+write) accesses
system.cpu.dcache.ReadReq_miss_rate::cpu.data     0.002702                       # miss rate for ReadReq accesses
system.cpu.dcache.ReadReq_miss_rate::total     0.002702                       # miss rate for ReadReq accesses
system.cpu.dcache.WriteReq_miss_rate::cpu.data     0.001655                       # miss rate for WriteReq accesses
system.cpu.dcache.WriteReq_miss_rate::total     0.001655                       # miss rate for WriteReq accesses
system.cpu.dcache.demand_miss_rate::cpu.data     0.002479                       # miss rate for demand accesses
system.cpu.dcache.demand_miss_rate::total     0.002479                       # miss rate for demand accesses
system.cpu.dcache.overall_miss_rate::cpu.data     0.002479                       # miss rate for overall accesses
system.cpu.dcache.overall_miss_rate::total     0.002479                       # miss rate for overall accesses
system.cpu.dcache.ReadReq_avg_miss_latency::cpu.data 236122.127973                       # average ReadReq miss latency
system.cpu.dcache.ReadReq_avg_miss_latency::total 236122.127973                       # average ReadReq miss latency
system.cpu.dcache.WriteReq_avg_miss_latency::cpu.data 192834.299078                       # average WriteReq miss latency
system.cpu.dcache.WriteReq_avg_miss_latency::total 192834.299078                       # average WriteReq miss latency
system.cpu.dcache.demand_avg_miss_latency::cpu.data 229972.108183                       # average overall miss latency
system.cpu.dcache.demand_avg_miss_latency::total 229972.108183                       # average overall miss latency
system.cpu.dcache.overall_avg_miss_latency::cpu.data 229972.108183                       # average overall miss latency
system.cpu.dcache.overall_avg_miss_latency::total 229972.108183                       # average overall miss latency
system.cpu.dcache.blocked_cycles::no_mshrs            0                       # number of cycles access was blocked
system.cpu.dcache.blocked_cycles::no_targets            0                       # number of cycles access was blocked
system.cpu.dcache.blocked::no_mshrs                 0                       # number of cycles access was blocked
system.cpu.dcache.blocked::no_targets               0                       # number of cycles access was blocked
system.cpu.dcache.avg_blocked_cycles::no_mshrs          nan                       # average number of cycles each access was blocked
system.cpu.dcache.avg_blocked_cycles::no_targets          nan                       # average number of cycles each access was blocked
system.cpu.dcache.writebacks::writebacks       320827                       # number of writebacks
system.cpu.dcache.writebacks::total            320827                       # number of writebacks
system.cpu.dcache.ReadReq_mshr_misses::cpu.data       318895                       # number of ReadReq MSHR misses
system.cpu.dcache.ReadReq_mshr_misses::total       318895                       # number of ReadReq MSHR misses
system.cpu.dcache.WriteReq_mshr_misses::cpu.data        52809                       # number of WriteReq MSHR misses
system.cpu.dcache.WriteReq_mshr_misses::total        52809                       # number of WriteReq MSHR misses
system.cpu.dcache.demand_mshr_misses::cpu.data       371704                       # number of demand (read+write) MSHR misses
system.cpu.dcache.demand_mshr_misses::total       371704                       # number of demand (read+write) MSHR misses
system.cpu.dcache.overall_mshr_misses::cpu.data       371704                       # number of overall MSHR misses
system.cpu.dcache.overall_mshr_misses::total       371704                       # number of overall MSHR misses
system.cpu.dcache.ReadReq_mshr_miss_latency::cpu.data  74979271000                       # number of ReadReq MSHR miss cycles
system.cpu.dcache.ReadReq_mshr_miss_latency::total  74979271000                       # number of ReadReq MSHR miss cycles
system.cpu.dcache.WriteReq_mshr_miss_latency::cpu.data  10130577500                       # number of WriteReq MSHR miss cycles
system.cpu.dcache.WriteReq_mshr_miss_latency::total  10130577500                       # number of WriteReq MSHR miss cycles
system.cpu.dcache.demand_mshr_miss_latency::cpu.data  85109848500                       # number of demand (read+write) MSHR miss cycles
system.cpu.dcache.demand_mshr_miss_latency::total  85109848500                       # number of demand (read+write) MSHR miss cycles
system.cpu.dcache.overall_mshr_miss_latency::cpu.data  85109848500                       # number of overall MSHR miss cycles
system.cpu.dcache.overall_mshr_miss_latency::total  85109848500                       # number of overall MSHR miss cycles
system.cpu.dcache.ReadReq_mshr_miss_rate::cpu.data     0.002702                       # mshr miss rate for ReadReq accesses
system.cpu.dcache.ReadReq_mshr_miss_rate::total     0.002702                       # mshr miss rate for ReadReq accesses
system.cpu.dcache.WriteReq_mshr_miss_rate::cpu.data     0.001655                       # mshr miss rate for WriteReq accesses
system.cpu.dcache.WriteReq_mshr_miss_rate::total     0.001655                       # mshr miss rate for WriteReq accesses
system.cpu.dcache.demand_mshr_miss_rate::cpu.data     0.002479                       # mshr miss rate for demand accesses
system.cpu.dcache.demand_mshr_miss_rate::total     0.002479                       # mshr miss rate for demand accesses
system.cpu.dcache.overall_mshr_miss_rate::cpu.data     0.002479                       # mshr miss rate for overall accesses
system.cpu.dcache.overall_mshr_miss_rate::total     0.002479                       # mshr miss rate for overall accesses
system.cpu.dcache.ReadReq_avg_mshr_miss_latency::cpu.data 235122.127973                       # average ReadReq mshr miss latency
system.cpu.dcache.ReadReq_avg_mshr_miss_latency::total 235122.127973                       # average ReadReq mshr miss latency
system.cpu.dcache.WriteReq_avg_mshr_miss_latency::cpu.data 191834.299078                       # average WriteReq mshr miss latency
system.cpu.dcache.WriteReq_avg_mshr_miss_latency::total 191834.299078                       # average WriteReq mshr miss latency
system.cpu.dcache.demand_avg_mshr_miss_latency::cpu.data 228972.108183                       # average overall mshr miss latency
system.cpu.dcache.demand_avg_mshr_miss_latency::total 228972.108183                       # average overall mshr miss latency
system.cpu.dcache.overall_avg_mshr_miss_latency::cpu.data 228972.108183                       # average overall mshr miss latency
system.cpu.dcache.overall_avg_mshr_miss_latency::total 228972.108183                       # average overall mshr miss latency
system.cpu.dcache.replacements                 351661                       # number of replacements
system.cpu.dtb_walker_cache.tags.pwrStateResidencyTicks::UNDEFINED 570354489000                       # Cumulative time (in ticks) in various power states
system.cpu.dtb_walker_cache.tags.tagsinuse            0                       # Cycle average of tags in use
system.cpu.dtb_walker_cache.tags.total_refs            0                       # Total number of references to valid blocks.
system.cpu.dtb_walker_cache.tags.sampled_refs            0                       # Sample count of references to valid blocks.
system.cpu.dtb_walker_cache.tags.avg_refs          nan                       # Average number of references to valid blocks.
system.cpu.dtb_walker_cache.tags.warmup_cycle            0                       # Cycle when the warmup percentage was hit.
system.cpu.dtb_walker_cache.tags.tag_accesses            0                       # Number of tag accesses
system.cpu.dtb_walker_cache.tags.data_accesses            0                       # Number of data accesses
system.cpu.dtb_walker_cache.pwrStateResidencyTicks::UNDEFINED 570354489000                       # Cumulative time (in ticks) in various power states
system.cpu.dtb_walker_cache.blocked_cycles::no_mshrs            0                       # number of cycles access was blocked
system.cpu.dtb_walker_cache.blocked_cycles::no_targets            0                       # number of cycles access was blocked
system.cpu.dtb_walker_cache.blocked::no_mshrs            0                       # number of cycles access was blocked
system.cpu.dtb_walker_cache.blocked::no_targets            0                       # number of cycles access was blocked
system.cpu.dtb_walker_cache.avg_blocked_cycles::no_mshrs          nan                       # average number of cycles each access was blocked
system.cpu.dtb_walker_cache.avg_blocked_cycles::no_targets          nan                       # average number of cycles each access was blocked
system.cpu.dtb_walker_cache.replacements            0                       # number of replacements
system.cpu.icache.tags.pwrStateResidencyTicks::UNDEFINED 570354489000                       # Cumulative time (in ticks) in various power states
system.cpu.icache.tags.tagsinuse           281.480217                       # Cycle average of tags in use
system.cpu.icache.tags.total_refs           335229892                       # Total number of references to valid blocks.
system.cpu.icache.tags.sampled_refs               356                       # Sample count of references to valid blocks.
system.cpu.icache.tags.avg_refs                941657                       # Average number of references to valid blocks.
system.cpu.icache.tags.warmup_cycle            439000                       # Cycle when the warmup percentage was hit.
system.cpu.icache.tags.occ_blocks::cpu.inst   281.480217                       # Average occupied blocks per requestor
system.cpu.icache.tags.occ_percent::cpu.inst     0.549766                       # Average percentage of cache occupancy
system.cpu.icache.tags.occ_percent::total     0.549766                       # Average percentage of cache occupancy
system.cpu.icache.tags.occ_task_id_blocks::1024          310                       # Occupied blocks per task id
system.cpu.icache.tags.age_task_id_blocks_1024::0           24                       # Occupied blocks per task id
system.cpu.icache.tags.age_task_id_blocks_1024::1           14                       # Occupied blocks per task id
system.cpu.icache.tags.age_task_id_blocks_1024::4          272                       # Occupied blocks per task id
system.cpu.icache.tags.occ_task_id_percent::1024     0.605469                       # Percentage of cache occupancy per task id
system.cpu.icache.tags.tag_accesses         670460140                       # Number of tag accesses
system.cpu.icache.tags.data_accesses        670460140                       # Number of data accesses
system.cpu.icache.pwrStateResidencyTicks::UNDEFINED 570354489000                       # Cumulative time (in ticks) in various power states
system.cpu.icache.ReadReq_hits::cpu.inst    335229536                       # number of ReadReq hits
system.cpu.icache.ReadReq_hits::total       335229536                       # number of ReadReq hits
system.cpu.icache.demand_hits::cpu.inst     335229536                       # number of demand (read+write) hits
system.cpu.icache.demand_hits::total        335229536                       # number of demand (read+write) hits
system.cpu.icache.overall_hits::cpu.inst    335229536                       # number of overall hits
system.cpu.icache.overall_hits::total       335229536                       # number of overall hits
system.cpu.icache.ReadReq_misses::cpu.inst          356                       # number of ReadReq misses
system.cpu.icache.ReadReq_misses::total           356                       # number of ReadReq misses
system.cpu.icache.demand_misses::cpu.inst          356                       # number of demand (read+write) misses
system.cpu.icache.demand_misses::total            356                       # number of demand (read+write) misses
system.cpu.icache.overall_misses::cpu.inst          356                       # number of overall misses
system.cpu.icache.overall_misses::total           356                       # number of overall misses
system.cpu.icache.ReadReq_miss_latency::cpu.inst     65835000                       # number of ReadReq miss cycles
system.cpu.icache.ReadReq_miss_latency::total     65835000                       # number of ReadReq miss cycles
system.cpu.icache.demand_miss_latency::cpu.inst     65835000                       # number of demand (read+write) miss cycles
system.cpu.icache.demand_miss_latency::total     65835000                       # number of demand (read+write) miss cycles
system.cpu.icache.overall_miss_latency::cpu.inst     65835000                       # number of overall miss cycles
system.cpu.icache.overall_miss_latency::total     65835000                       # number of overall miss cycles
system.cpu.icache.ReadReq_accesses::cpu.inst    335229892                       # number of ReadReq accesses(hits+misses)
system.cpu.icache.ReadReq_accesses::total    335229892                       # number of ReadReq accesses(hits+misses)
system.cpu.icache.demand_accesses::cpu.inst    335229892                       # number of demand (read+write) accesses
system.cpu.icache.demand_accesses::total    335229892                       # number of demand (read+write) accesses
system.cpu.icache.overall_accesses::cpu.inst    335229892                       # number of overall (read+write) accesses
system.cpu.icache.overall_accesses::total    335229892                       # number of overall (read+write) accesses
system.cpu.icache.ReadReq_miss_rate::cpu.inst     0.000001                       # miss rate for ReadReq accesses
system.cpu.icache.ReadReq_miss_rate::total     0.000001                       # miss rate for ReadReq accesses
system.cpu.icache.demand_miss_rate::cpu.inst     0.000001                       # miss rate for demand accesses
system.cpu.icache.demand_miss_rate::total     0.000001                       # miss rate for demand accesses
system.cpu.icache.overall_miss_rate::cpu.inst     0.000001                       # miss rate for overall accesses
system.cpu.icache.overall_miss_rate::total     0.000001                       # miss rate for overall accesses
system.cpu.icache.ReadReq_avg_miss_latency::cpu.inst 184929.775281                       # average ReadReq miss latency
system.cpu.icache.ReadReq_avg_miss_latency::total 184929.775281                       # average ReadReq miss latency
system.cpu.icache.demand_avg_miss_latency::cpu.inst 184929.775281                       # average overall miss latency
system.cpu.icache.demand_avg_miss_latency::total 184929.775281                       # average overall miss latency
system.cpu.icache.overall_avg_miss_latency::cpu.inst 184929.775281                       # average overall miss latency
system.cpu.icache.overall_avg_miss_latency::total 184929.775281                       # average overall miss latency
system.cpu.icache.blocked_cycles::no_mshrs            0                       # number of cycles access was blocked
system.cpu.icache.blocked_cycles::no_targets            0                       # number of cycles access was blocked
system.cpu.icache.blocked::no_mshrs                 0                       # number of cycles access was blocked
system.cpu.icache.blocked::no_targets               0                       # number of cycles access was blocked
system.cpu.icache.avg_blocked_cycles::no_mshrs          nan                       # average number of cycles each access was blocked
system.cpu.icache.avg_blocked_cycles::no_targets          nan                       # average number of cycles each access was blocked
system.cpu.icache.writebacks::writebacks           46                       # number of writebacks
system.cpu.icache.writebacks::total                46                       # number of writebacks
system.cpu.icache.ReadReq_mshr_misses::cpu.inst          356                       # number of ReadReq MSHR misses
system.cpu.icache.ReadReq_mshr_misses::total          356                       # number of ReadReq MSHR misses
system.cpu.icache.demand_mshr_misses::cpu.inst          356                       # number of demand (read+write) MSHR misses
system.cpu.icache.demand_mshr_misses::total          356                       # number of demand (read+write) MSHR misses
system.cpu.icache.overall_mshr_misses::cpu.inst          356                       # number of overall MSHR misses
system.cpu.icache.overall_mshr_misses::total          356                       # number of overall MSHR misses
system.cpu.icache.ReadReq_mshr_miss_latency::cpu.inst     65479000                       # number of ReadReq MSHR miss cycles
system.cpu.icache.ReadReq_mshr_miss_latency::total     65479000                       # number of ReadReq MSHR miss cycles
system.cpu.icache.demand_mshr_miss_latency::cpu.inst     65479000                       # number of demand (read+write) MSHR miss cycles
system.cpu.icache.demand_mshr_miss_latency::total     65479000                       # number of demand (read+write) MSHR miss cycles
system.cpu.icache.overall_mshr_miss_latency::cpu.inst     65479000                       # number of overall MSHR miss cycles
system.cpu.icache.overall_mshr_miss_latency::total     65479000                       # number of overall MSHR miss cycles
system.cpu.icache.ReadReq_mshr_miss_rate::cpu.inst     0.000001                       # mshr miss rate for ReadReq accesses
system.cpu.icache.ReadReq_mshr_miss_rate::total     0.000001                       # mshr miss rate for ReadReq accesses
system.cpu.icache.demand_mshr_miss_rate::cpu.inst     0.000001                       # mshr miss rate for demand accesses
system.cpu.icache.demand_mshr_miss_rate::total     0.000001                       # mshr miss rate for demand accesses
system.cpu.icache.overall_mshr_miss_rate::cpu.inst     0.000001                       # mshr miss rate for overall accesses
system.cpu.icache.overall_mshr_miss_rate::total     0.000001                       # mshr miss rate for overall accesses
system.cpu.icache.ReadReq_avg_mshr_miss_latency::cpu.inst 183929.775281                       # average ReadReq mshr miss latency
system.cpu.icache.ReadReq_avg_mshr_miss_latency::total 183929.775281                       # average ReadReq mshr miss latency
system.cpu.icache.demand_avg_mshr_miss_latency::cpu.inst 183929.775281                       # average overall mshr miss latency
system.cpu.icache.demand_avg_mshr_miss_latency::total 183929.775281                       # average overall mshr miss latency
system.cpu.icache.overall_avg_mshr_miss_latency::cpu.inst 183929.775281                       # average overall mshr miss latency
system.cpu.icache.overall_avg_mshr_miss_latency::total 183929.775281                       # average overall mshr miss latency
system.cpu.icache.replacements                     46                       # number of replacements
system.cpu.itb_walker_cache.tags.pwrStateResidencyTicks::UNDEFINED 570354489000                       # Cumulative time (in ticks) in various power states
system.cpu.itb_walker_cache.tags.tagsinuse            0                       # Cycle average of tags in use
system.cpu.itb_walker_cache.tags.total_refs            0                       # Total number of references to valid blocks.
system.cpu.itb_walker_cache.tags.sampled_refs            0                       # Sample count of references to valid blocks.
system.cpu.itb_walker_cache.tags.avg_refs          nan                       # Average number of references to valid blocks.
system.cpu.itb_walker_cache.tags.warmup_cycle            0                       # Cycle when the warmup percentage was hit.
system.cpu.itb_walker_cache.tags.tag_accesses            0                       # Number of tag accesses
system.cpu.itb_walker_cache.tags.data_accesses            0                       # Number of data accesses
system.cpu.itb_walker_cache.pwrStateResidencyTicks::UNDEFINED 570354489000                       # Cumulative time (in ticks) in various power states
system.cpu.itb_walker_cache.blocked_cycles::no_mshrs            0                       # number of cycles access was blocked
system.cpu.itb_walker_cache.blocked_cycles::no_targets            0                       # number of cycles access was blocked
system.cpu.itb_walker_cache.blocked::no_mshrs            0                       # number of cycles access was blocked
system.cpu.itb_walker_cache.blocked::no_targets            0                       # number of cycles access was blocked
system.cpu.itb_walker_cache.avg_blocked_cycles::no_mshrs          nan                       # average number of cycles each access was blocked
system.cpu.itb_walker_cache.avg_blocked_cycles::no_targets          nan                       # average number of cycles each access was blocked
system.cpu.itb_walker_cache.replacements            0                       # number of replacements
system.l2.tags.pwrStateResidencyTicks::UNDEFINED 570354489000                       # Cumulative time (in ticks) in various power states
system.l2.tags.tagsinuse                  2043.364858                       # Cycle average of tags in use
system.l2.tags.total_refs                      723767                       # Total number of references to valid blocks.
system.l2.tags.sampled_refs                    248842                       # Sample count of references to valid blocks.
system.l2.tags.avg_refs                      2.908540                       # Average number of references to valid blocks.
system.l2.tags.warmup_cycle                    428500                       # Cycle when the warmup percentage was hit.
system.l2.tags.occ_blocks::writebacks        0.938466                       # Average occupied blocks per requestor
system.l2.tags.occ_blocks::cpu.inst          1.795964                       # Average occupied blocks per requestor
system.l2.tags.occ_blocks::cpu.data       2040.630429                       # Average occupied blocks per requestor
system.l2.tags.occ_percent::writebacks       0.000458                       # Average percentage of cache occupancy
system.l2.tags.occ_percent::cpu.inst         0.000877                       # Average percentage of cache occupancy
system.l2.tags.occ_percent::cpu.data         0.996402                       # Average percentage of cache occupancy
system.l2.tags.occ_percent::total            0.997737                       # Average percentage of cache occupancy
system.l2.tags.occ_task_id_blocks::1024          2048                       # Occupied blocks per task id
system.l2.tags.age_task_id_blocks_1024::0           44                       # Occupied blocks per task id
system.l2.tags.age_task_id_blocks_1024::1           31                       # Occupied blocks per task id
system.l2.tags.age_task_id_blocks_1024::3           51                       # Occupied blocks per task id
system.l2.tags.age_task_id_blocks_1024::4         1922                       # Occupied blocks per task id
system.l2.tags.occ_task_id_percent::1024            1                       # Percentage of cache occupancy per task id
system.l2.tags.tag_accesses                   6038978                       # Number of tag accesses
system.l2.tags.data_accesses                  6038978                       # Number of data accesses
system.l2.pwrStateResidencyTicks::UNDEFINED 570354489000                       # Cumulative time (in ticks) in various power states
system.l2.WritebackDirty_hits::writebacks       320827                       # number of WritebackDirty hits
system.l2.WritebackDirty_hits::total           320827                       # number of WritebackDirty hits
system.l2.WritebackClean_hits::writebacks           46                       # number of WritebackClean hits
system.l2.WritebackClean_hits::total               46                       # number of WritebackClean hits
system.l2.UpgradeReq_hits::cpu.data             19531                       # number of UpgradeReq hits
system.l2.UpgradeReq_hits::total                19531                       # number of UpgradeReq hits
system.l2.ReadExReq_hits::cpu.data               1464                       # number of ReadExReq hits
system.l2.ReadExReq_hits::total                  1464                       # number of ReadExReq hits
system.l2.ReadSharedReq_hits::cpu.data         102285                       # number of ReadSharedReq hits
system.l2.ReadSharedReq_hits::total            102285                       # number of ReadSharedReq hits
system.l2.demand_hits::cpu.data                103749                       # number of demand (read+write) hits
system.l2.demand_hits::total                   103749                       # number of demand (read+write) hits
system.l2.overall_hits::cpu.data               103749                       # number of overall hits
system.l2.overall_hits::total                  103749                       # number of overall hits
system.l2.ReadExReq_misses::cpu.data            31814                       # number of ReadExReq misses
system.l2.ReadExReq_misses::total               31814                       # number of ReadExReq misses
system.l2.ReadCleanReq_misses::cpu.inst           356                       # number of ReadCleanReq misses
system.l2.ReadCleanReq_misses::total              356                       # number of ReadCleanReq misses
system.l2.ReadSharedReq_misses::cpu.data       216610                       # number of ReadSharedReq misses
system.l2.ReadSharedReq_misses::total          216610                       # number of ReadSharedReq misses
system.l2.demand_misses::cpu.inst                 356                       # number of demand (read+write) misses
system.l2.demand_misses::cpu.data              248424                       # number of demand (read+write) misses
system.l2.demand_misses::total                 248780                       # number of demand (read+write) misses
system.l2.overall_misses::cpu.inst                356                       # number of overall misses
system.l2.overall_misses::cpu.data             248424                       # number of overall misses
system.l2.overall_misses::total                248780                       # number of overall misses
system.l2.ReadExReq_miss_latency::cpu.data   9830916500                       # number of ReadExReq miss cycles
system.l2.ReadExReq_miss_latency::total    9830916500                       # number of ReadExReq miss cycles
system.l2.ReadCleanReq_miss_latency::cpu.inst     64943500                       # number of ReadCleanReq miss cycles
system.l2.ReadCleanReq_miss_latency::total     64943500                       # number of ReadCleanReq miss cycles
system.l2.ReadSharedReq_miss_latency::cpu.data  73426935500                       # number of ReadSharedReq miss cycles
system.l2.ReadSharedReq_miss_latency::total  73426935500                       # number of ReadSharedReq miss cycles
system.l2.demand_miss_latency::cpu.inst      64943500                       # number of demand (read+write) miss cycles
system.l2.demand_miss_latency::cpu.data   83257852000                       # number of demand (read+write) miss cycles
system.l2.demand_miss_latency::total      83322795500                       # number of demand (read+write) miss cycles
system.l2.overall_miss_latency::cpu.inst     64943500                       # number of overall miss cycles
system.l2.overall_miss_latency::cpu.data  83257852000                       # number of overall miss cycles
system.l2.overall_miss_latency::total     83322795500                       # number of overall miss cycles
system.l2.WritebackDirty_accesses::writebacks       320827                       # number of WritebackDirty accesses(hits+misses)
system.l2.WritebackDirty_accesses::total       320827                       # number of WritebackDirty accesses(hits+misses)
system.l2.WritebackClean_accesses::writebacks           46                       # number of WritebackClean accesses(hits+misses)
system.l2.WritebackClean_accesses::total           46                       # number of WritebackClean accesses(hits+misses)
system.l2.UpgradeReq_accesses::cpu.data         19531                       # number of UpgradeReq accesses(hits+misses)
system.l2.UpgradeReq_accesses::total            19531                       # number of UpgradeReq accesses(hits+misses)
system.l2.ReadExReq_accesses::cpu.data          33278                       # number of ReadExReq accesses(hits+misses)
system.l2.ReadExReq_accesses::total             33278                       # number of ReadExReq accesses(hits+misses)
system.l2.ReadCleanReq_accesses::cpu.inst          356                       # number of ReadCleanReq accesses(hits+misses)
system.l2.ReadCleanReq_accesses::total            356                       # number of ReadCleanReq accesses(hits+misses)
system.l2.ReadSharedReq_accesses::cpu.data       318895                       # number of ReadSharedReq accesses(hits+misses)
system.l2.ReadSharedReq_accesses::total        318895                       # number of ReadSharedReq accesses(hits+misses)
system.l2.demand_accesses::cpu.inst               356                       # number of demand (read+write) accesses
system.l2.demand_accesses::cpu.data            352173                       # number of demand (read+write) accesses
system.l2.demand_accesses::total               352529                       # number of demand (read+write) accesses
system.l2.overall_accesses::cpu.inst              356                       # number of overall (read+write) accesses
system.l2.overall_accesses::cpu.data           352173                       # number of overall (read+write) accesses
system.l2.overall_accesses::total              352529                       # number of overall (read+write) accesses
system.l2.ReadExReq_miss_rate::cpu.data      0.956007                       # miss rate for ReadExReq accesses
system.l2.ReadExReq_miss_rate::total         0.956007                       # miss rate for ReadExReq accesses
system.l2.ReadCleanReq_miss_rate::cpu.inst            1                       # miss rate for ReadCleanReq accesses
system.l2.ReadCleanReq_miss_rate::total             1                       # miss rate for ReadCleanReq accesses
system.l2.ReadSharedReq_miss_rate::cpu.data     0.679252                       # miss rate for ReadSharedReq accesses
system.l2.ReadSharedReq_miss_rate::total     0.679252                       # miss rate for ReadSharedReq accesses
system.l2.demand_miss_rate::cpu.inst                1                       # miss rate for demand accesses
system.l2.demand_miss_rate::cpu.data         0.705403                       # miss rate for demand accesses
system.l2.demand_miss_rate::total            0.705701                       # miss rate for demand accesses
system.l2.overall_miss_rate::cpu.inst               1                       # miss rate for overall accesses
system.l2.overall_miss_rate::cpu.data        0.705403                       # miss rate for overall accesses
system.l2.overall_miss_rate::total           0.705701                       # miss rate for overall accesses
system.l2.ReadExReq_avg_miss_latency::cpu.data 309012.274470                       # average ReadExReq miss latency
system.l2.ReadExReq_avg_miss_latency::total 309012.274470                       # average ReadExReq miss latency
system.l2.ReadCleanReq_avg_miss_latency::cpu.inst 182425.561798                       # average ReadCleanReq miss latency
system.l2.ReadCleanReq_avg_miss_latency::total 182425.561798                       # average ReadCleanReq miss latency
system.l2.ReadSharedReq_avg_miss_latency::cpu.data 338982.205346                       # average ReadSharedReq miss latency
system.l2.ReadSharedReq_avg_miss_latency::total 338982.205346                       # average ReadSharedReq miss latency
system.l2.demand_avg_miss_latency::cpu.inst 182425.561798                       # average overall miss latency
system.l2.demand_avg_miss_latency::cpu.data 335144.156764                       # average overall miss latency
system.l2.demand_avg_miss_latency::total 334925.619021                       # average overall miss latency
system.l2.overall_avg_miss_latency::cpu.inst 182425.561798                       # average overall miss latency
system.l2.overall_avg_miss_latency::cpu.data 335144.156764                       # average overall miss latency
system.l2.overall_avg_miss_latency::total 334925.619021                       # average overall miss latency
system.l2.blocked_cycles::no_mshrs                  0                       # number of cycles access was blocked
system.l2.blocked_cycles::no_targets                0                       # number of cycles access was blocked
system.l2.blocked::no_mshrs                         0                       # number of cycles access was blocked
system.l2.blocked::no_targets                       0                       # number of cycles access was blocked
system.l2.avg_blocked_cycles::no_mshrs            nan                       # average number of cycles each access was blocked
system.l2.avg_blocked_cycles::no_targets          nan                       # average number of cycles each access was blocked
system.l2.writebacks::writebacks               222633                       # number of writebacks
system.l2.writebacks::total                    222633                       # number of writebacks
system.l2.ReadExReq_mshr_misses::cpu.data        31814                       # number of ReadExReq MSHR misses
system.l2.ReadExReq_mshr_misses::total          31814                       # number of ReadExReq MSHR misses
system.l2.ReadCleanReq_mshr_misses::cpu.inst          356                       # number of ReadCleanReq MSHR misses
system.l2.ReadCleanReq_mshr_misses::total          356                       # number of ReadCleanReq MSHR misses
system.l2.ReadSharedReq_mshr_misses::cpu.data       216610                       # number of ReadSharedReq MSHR misses
system.l2.ReadSharedReq_mshr_misses::total       216610                       # number of ReadSharedReq MSHR misses
system.l2.demand_mshr_misses::cpu.inst            356                       # number of demand (read+write) MSHR misses
system.l2.demand_mshr_misses::cpu.data         248424                       # number of demand (read+write) MSHR misses
system.l2.demand_mshr_misses::total            248780                       # number of demand (read+write) MSHR misses
system.l2.overall_mshr_misses::cpu.inst           356                       # number of overall MSHR misses
system.l2.overall_mshr_misses::cpu.data        248424                       # number of overall MSHR misses
system.l2.overall_mshr_misses::total           248780                       # number of overall MSHR misses
system.l2.ReadExReq_mshr_miss_latency::cpu.data   9512776500                       # number of ReadExReq MSHR miss cycles
system.l2.ReadExReq_mshr_miss_latency::total   9512776500                       # number of ReadExReq MSHR miss cycles
system.l2.ReadCleanReq_mshr_miss_latency::cpu.inst     61383500                       # number of ReadCleanReq MSHR miss cycles
system.l2.ReadCleanReq_mshr_miss_latency::total     61383500                       # number of ReadCleanReq MSHR miss cycles
system.l2.ReadSharedReq_mshr_miss_latency::cpu.data  71260835500                       # number of ReadSharedReq MSHR miss cycles
system.l2.ReadSharedReq_mshr_miss_latency::total  71260835500                       # number of ReadSharedReq MSHR miss cycles
system.l2.demand_mshr_miss_latency::cpu.inst     61383500                       # number of demand (read+write) MSHR miss cycles
system.l2.demand_mshr_miss_latency::cpu.data  80773612000                       # number of demand (read+write) MSHR miss cycles
system.l2.demand_mshr_miss_latency::total  80834995500                       # number of demand (read+write) MSHR miss cycles
system.l2.overall_mshr_miss_latency::cpu.inst     61383500                       # number of overall MSHR miss cycles
system.l2.overall_mshr_miss_latency::cpu.data  80773612000                       # number of overall MSHR miss cycles
system.l2.overall_mshr_miss_latency::total  80834995500                       # number of overall MSHR miss cycles
system.l2.ReadExReq_mshr_miss_rate::cpu.data     0.956007                       # mshr miss rate for ReadExReq accesses
system.l2.ReadExReq_mshr_miss_rate::total     0.956007                       # mshr miss rate for ReadExReq accesses
system.l2.ReadCleanReq_mshr_miss_rate::cpu.inst            1                       # mshr miss rate for ReadCleanReq accesses
system.l2.ReadCleanReq_mshr_miss_rate::total            1                       # mshr miss rate for ReadCleanReq accesses
system.l2.ReadSharedReq_mshr_miss_rate::cpu.data     0.679252                       # mshr miss rate for ReadSharedReq accesses
system.l2.ReadSharedReq_mshr_miss_rate::total     0.679252                       # mshr miss rate for ReadSharedReq accesses
system.l2.demand_mshr_miss_rate::cpu.inst            1                       # mshr miss rate for demand accesses
system.l2.demand_mshr_miss_rate::cpu.data     0.705403                       # mshr miss rate for demand accesses
system.l2.demand_mshr_miss_rate::total       0.705701                       # mshr miss rate for demand accesses
system.l2.overall_mshr_miss_rate::cpu.inst            1                       # mshr miss rate for overall accesses
system.l2.overall_mshr_miss_rate::cpu.data     0.705403                       # mshr miss rate for overall accesses
system.l2.overall_mshr_miss_rate::total      0.705701                       # mshr miss rate for overall accesses
system.l2.ReadExReq_avg_mshr_miss_latency::cpu.data 299012.274470                       # average ReadExReq mshr miss latency
system.l2.ReadExReq_avg_mshr_miss_latency::total 299012.274470                       # average ReadExReq mshr miss latency
system.l2.ReadCleanReq_avg_mshr_miss_latency::cpu.inst 172425.561798                       # average ReadCleanReq mshr miss latency
system.l2.ReadCleanReq_avg_mshr_miss_latency::total 172425.561798                       # average ReadCleanReq mshr miss latency
system.l2.ReadSharedReq_avg_mshr_miss_latency::cpu.data 328982.205346                       # average ReadSharedReq mshr miss latency
system.l2.ReadSharedReq_avg_mshr_miss_latency::total 328982.205346                       # average ReadSharedReq mshr miss latency
system.l2.demand_avg_mshr_miss_latency::cpu.inst 172425.561798                       # average overall mshr miss latency
system.l2.demand_avg_mshr_miss_latency::cpu.data 325144.156764                       # average overall mshr miss latency
system.l2.demand_avg_mshr_miss_latency::total 324925.619021                       # average overall mshr miss latency
system.l2.overall_avg_mshr_miss_latency::cpu.inst 172425.561798                       # average overall mshr miss latency
system.l2.overall_avg_mshr_miss_latency::cpu.data 325144.156764                       # average overall mshr miss latency
system.l2.overall_avg_mshr_miss_latency::total 324925.619021                       # average overall mshr miss latency
system.l2.replacements                         246794                       # number of replacements
system.l3.tags.pwrStateResidencyTicks::UNDEFINED 570354489000                       # Cumulative time (in ticks) in various power states
system.l3.tags.tagsinuse                  2043.587496                       # Cycle average of tags in use
system.l3.tags.total_refs                      471605                       # Total number of references to valid blocks.
system.l3.tags.sampled_refs                    433987                       # Sample count of references to valid blocks.
system.l3.tags.avg_refs                      1.086680                       # Average number of references to valid blocks.
system.l3.tags.warmup_cycle                    418000                       # Cycle when the warmup percentage was hit.
system.l3.tags.occ_blocks::writebacks     1148.665557                       # Average occupied blocks per requestor
system.l3.tags.occ_blocks::cpu.inst          2.009534                       # Average occupied blocks per requestor
system.l3.tags.occ_blocks::cpu.data        892.912405                       # Average occupied blocks per requestor
system.l3.tags.occ_percent::writebacks       0.560872                       # Average percentage of cache occupancy
system.l3.tags.occ_percent::cpu.inst         0.000981                       # Average percentage of cache occupancy
system.l3.tags.occ_percent::cpu.data         0.435992                       # Average percentage of cache occupancy
system.l3.tags.occ_percent::total            0.997845                       # Average percentage of cache occupancy
system.l3.tags.occ_task_id_blocks::1024          2048                       # Occupied blocks per task id
system.l3.tags.age_task_id_blocks_1024::0           59                       # Occupied blocks per task id
system.l3.tags.age_task_id_blocks_1024::1           47                       # Occupied blocks per task id
system.l3.tags.age_task_id_blocks_1024::3            1                       # Occupied blocks per task id
system.l3.tags.age_task_id_blocks_1024::4         1941                       # Occupied blocks per task id
system.l3.tags.occ_task_id_percent::1024            1                       # Percentage of cache occupancy per task id
system.l3.tags.tag_accesses                1014685507                       # Number of tag accesses
system.l3.tags.data_accesses               1014685507                       # Number of data accesses
system.l3.pwrStateResidencyTicks::UNDEFINED 570354489000                       # Cumulative time (in ticks) in various power states
system.l3.WritebackDirty_hits::writebacks       222633                       # number of WritebackDirty hits
system.l3.WritebackDirty_hits::total           222633                       # number of WritebackDirty hits
system.l3.ReadExReq_hits::cpu.data                179                       # number of ReadExReq hits
system.l3.ReadExReq_hits::total                   179                       # number of ReadExReq hits
system.l3.ReadSharedReq_hits::cpu.data          22575                       # number of ReadSharedReq hits
system.l3.ReadSharedReq_hits::total             22575                       # number of ReadSharedReq hits
system.l3.demand_hits::cpu.data                 22754                       # number of demand (read+write) hits
system.l3.demand_hits::total                    22754                       # number of demand (read+write) hits
system.l3.overall_hits::cpu.data                22754                       # number of overall hits
system.l3.overall_hits::total                   22754                       # number of overall hits
system.l3.ReadExReq_misses::cpu.data            31635                       # number of ReadExReq misses
system.l3.ReadExReq_misses::total               31635                       # number of ReadExReq misses
system.l3.ReadSharedReq_misses::cpu.inst          356                       # number of ReadSharedReq misses
system.l3.ReadSharedReq_misses::cpu.data       194035                       # number of ReadSharedReq misses
system.l3.ReadSharedReq_misses::total          194391                       # number of ReadSharedReq misses
system.l3.demand_misses::cpu.inst                 356                       # number of demand (read+write) misses
system.l3.demand_misses::cpu.data              225670                       # number of demand (read+write) misses
system.l3.demand_misses::total                 226026                       # number of demand (read+write) misses
system.l3.overall_misses::cpu.inst                356                       # number of overall misses
system.l3.overall_misses::cpu.data             225670                       # number of overall misses
system.l3.overall_misses::total                226026                       # number of overall misses
system.l3.ReadExReq_miss_latency::cpu.data   9160943000                       # number of ReadExReq miss cycles
system.l3.ReadExReq_miss_latency::total    9160943000                       # number of ReadExReq miss cycles
system.l3.ReadSharedReq_miss_latency::cpu.inst     57467500                       # number of ReadSharedReq miss cycles
system.l3.ReadSharedReq_miss_latency::cpu.data  68628966499                       # number of ReadSharedReq miss cycles
system.l3.ReadSharedReq_miss_latency::total  68686433999                       # number of ReadSharedReq miss cycles
system.l3.demand_miss_latency::cpu.inst      57467500                       # number of demand (read+write) miss cycles
system.l3.demand_miss_latency::cpu.data   77789909499                       # number of demand (read+write) miss cycles
system.l3.demand_miss_latency::total      77847376999                       # number of demand (read+write) miss cycles
system.l3.overall_miss_latency::cpu.inst     57467500                       # number of overall miss cycles
system.l3.overall_miss_latency::cpu.data  77789909499                       # number of overall miss cycles
system.l3.overall_miss_latency::total     77847376999                       # number of overall miss cycles
system.l3.WritebackDirty_accesses::writebacks       222633                       # number of WritebackDirty accesses(hits+misses)
system.l3.WritebackDirty_accesses::total       222633                       # number of WritebackDirty accesses(hits+misses)
system.l3.ReadExReq_accesses::cpu.data          31814                       # number of ReadExReq accesses(hits+misses)
system.l3.ReadExReq_accesses::total             31814                       # number of ReadExReq accesses(hits+misses)
system.l3.ReadSharedReq_accesses::cpu.inst          356                       # number of ReadSharedReq accesses(hits+misses)
system.l3.ReadSharedReq_accesses::cpu.data       216610                       # number of ReadSharedReq accesses(hits+misses)
system.l3.ReadSharedReq_accesses::total        216966                       # number of ReadSharedReq accesses(hits+misses)
system.l3.demand_accesses::cpu.inst               356                       # number of demand (read+write) accesses
system.l3.demand_accesses::cpu.data            248424                       # number of demand (read+write) accesses
system.l3.demand_accesses::total               248780                       # number of demand (read+write) accesses
system.l3.overall_accesses::cpu.inst              356                       # number of overall (read+write) accesses
system.l3.overall_accesses::cpu.data           248424                       # number of overall (read+write) accesses
system.l3.overall_accesses::total              248780                       # number of overall (read+write) accesses
system.l3.ReadExReq_miss_rate::cpu.data      0.994374                       # miss rate for ReadExReq accesses
system.l3.ReadExReq_miss_rate::total         0.994374                       # miss rate for ReadExReq accesses
system.l3.ReadSharedReq_miss_rate::cpu.inst            1                       # miss rate for ReadSharedReq accesses
system.l3.ReadSharedReq_miss_rate::cpu.data     0.895780                       # miss rate for ReadSharedReq accesses
system.l3.ReadSharedReq_miss_rate::total     0.895951                       # miss rate for ReadSharedReq accesses
system.l3.demand_miss_rate::cpu.inst                1                       # miss rate for demand accesses
system.l3.demand_miss_rate::cpu.data         0.908407                       # miss rate for demand accesses
system.l3.demand_miss_rate::total            0.908538                       # miss rate for demand accesses
system.l3.overall_miss_rate::cpu.inst               1                       # miss rate for overall accesses
system.l3.overall_miss_rate::cpu.data        0.908407                       # miss rate for overall accesses
system.l3.overall_miss_rate::total           0.908538                       # miss rate for overall accesses
system.l3.ReadExReq_avg_miss_latency::cpu.data 289582.519361                       # average ReadExReq miss latency
system.l3.ReadExReq_avg_miss_latency::total 289582.519361                       # average ReadExReq miss latency
system.l3.ReadSharedReq_avg_miss_latency::cpu.inst 161425.561798                       # average ReadSharedReq miss latency
system.l3.ReadSharedReq_avg_miss_latency::cpu.data 353693.748545                       # average ReadSharedReq miss latency
system.l3.ReadSharedReq_avg_miss_latency::total 353341.636182                       # average ReadSharedReq miss latency
system.l3.demand_avg_miss_latency::cpu.inst 161425.561798                       # average overall miss latency
system.l3.demand_avg_miss_latency::cpu.data 344706.471835                       # average overall miss latency
system.l3.demand_avg_miss_latency::total 344417.797063                       # average overall miss latency
system.l3.overall_avg_miss_latency::cpu.inst 161425.561798                       # average overall miss latency
system.l3.overall_avg_miss_latency::cpu.data 344706.471835                       # average overall miss latency
system.l3.overall_avg_miss_latency::total 344417.797063                       # average overall miss latency
system.l3.blocked_cycles::no_mshrs                  0                       # number of cycles access was blocked
system.l3.blocked_cycles::no_targets                0                       # number of cycles access was blocked
system.l3.blocked::no_mshrs                         0                       # number of cycles access was blocked
system.l3.blocked::no_targets                       0                       # number of cycles access was blocked
system.l3.avg_blocked_cycles::no_mshrs            nan                       # average number of cycles each access was blocked
system.l3.avg_blocked_cycles::no_targets          nan                       # average number of cycles each access was blocked
system.l3.writebacks::writebacks               199295                       # number of writebacks
system.l3.writebacks::total                    199295                       # number of writebacks
system.l3.CleanEvict_mshr_misses::writebacks        23635                       # number of CleanEvict MSHR misses
system.l3.CleanEvict_mshr_misses::total         23635                       # number of CleanEvict MSHR misses
system.l3.ReadExReq_mshr_misses::cpu.data        31635                       # number of ReadExReq MSHR misses
system.l3.ReadExReq_mshr_misses::total          31635                       # number of ReadExReq MSHR misses
system.l3.ReadSharedReq_mshr_misses::cpu.inst          356                       # number of ReadSharedReq MSHR misses
system.l3.ReadSharedReq_mshr_misses::cpu.data       194035                       # number of ReadSharedReq MSHR misses
system.l3.ReadSharedReq_mshr_misses::total       194391                       # number of ReadSharedReq MSHR misses
system.l3.demand_mshr_misses::cpu.inst            356                       # number of demand (read+write) MSHR misses
system.l3.demand_mshr_misses::cpu.data         225670                       # number of demand (read+write) MSHR misses
system.l3.demand_mshr_misses::total            226026                       # number of demand (read+write) MSHR misses
system.l3.overall_mshr_misses::cpu.inst           356                       # number of overall MSHR misses
system.l3.overall_mshr_misses::cpu.data        225670                       # number of overall MSHR misses
system.l3.overall_mshr_misses::total           226026                       # number of overall MSHR misses
system.l3.ReadExReq_mshr_miss_latency::cpu.data   8844593000                       # number of ReadExReq MSHR miss cycles
system.l3.ReadExReq_mshr_miss_latency::total   8844593000                       # number of ReadExReq MSHR miss cycles
system.l3.ReadSharedReq_mshr_miss_latency::cpu.inst     53907500                       # number of ReadSharedReq MSHR miss cycles
system.l3.ReadSharedReq_mshr_miss_latency::cpu.data  66688616499                       # number of ReadSharedReq MSHR miss cycles
system.l3.ReadSharedReq_mshr_miss_latency::total  66742523999                       # number of ReadSharedReq MSHR miss cycles
system.l3.demand_mshr_miss_latency::cpu.inst     53907500                       # number of demand (read+write) MSHR miss cycles
system.l3.demand_mshr_miss_latency::cpu.data  75533209499                       # number of demand (read+write) MSHR miss cycles
system.l3.demand_mshr_miss_latency::total  75587116999                       # number of demand (read+write) MSHR miss cycles
system.l3.overall_mshr_miss_latency::cpu.inst     53907500                       # number of overall MSHR miss cycles
system.l3.overall_mshr_miss_latency::cpu.data  75533209499                       # number of overall MSHR miss cycles
system.l3.overall_mshr_miss_latency::total  75587116999                       # number of overall MSHR miss cycles
system.l3.CleanEvict_mshr_miss_rate::writebacks          inf                       # mshr miss rate for CleanEvict accesses
system.l3.CleanEvict_mshr_miss_rate::total          inf                       # mshr miss rate for CleanEvict accesses
system.l3.ReadExReq_mshr_miss_rate::cpu.data     0.994374                       # mshr miss rate for ReadExReq accesses
system.l3.ReadExReq_mshr_miss_rate::total     0.994374                       # mshr miss rate for ReadExReq accesses
system.l3.ReadSharedReq_mshr_miss_rate::cpu.inst            1                       # mshr miss rate for ReadSharedReq accesses
system.l3.ReadSharedReq_mshr_miss_rate::cpu.data     0.895780                       # mshr miss rate for ReadSharedReq accesses
system.l3.ReadSharedReq_mshr_miss_rate::total     0.895951                       # mshr miss rate for ReadSharedReq accesses
system.l3.demand_mshr_miss_rate::cpu.inst            1                       # mshr miss rate for demand accesses
system.l3.demand_mshr_miss_rate::cpu.data     0.908407                       # mshr miss rate for demand accesses
system.l3.demand_mshr_miss_rate::total       0.908538                       # mshr miss rate for demand accesses
system.l3.overall_mshr_miss_rate::cpu.inst            1                       # mshr miss rate for overall accesses
system.l3.overall_mshr_miss_rate::cpu.data     0.908407                       # mshr miss rate for overall accesses
system.l3.overall_mshr_miss_rate::total      0.908538                       # mshr miss rate for overall accesses
system.l3.ReadExReq_avg_mshr_miss_latency::cpu.data 279582.519361                       # average ReadExReq mshr miss latency
system.l3.ReadExReq_avg_mshr_miss_latency::total 279582.519361                       # average ReadExReq mshr miss latency
system.l3.ReadSharedReq_avg_mshr_miss_latency::cpu.inst 151425.561798                       # average ReadSharedReq mshr miss latency
system.l3.ReadSharedReq_avg_mshr_miss_latency::cpu.data 343693.748545                       # average ReadSharedReq mshr miss latency
system.l3.ReadSharedReq_avg_mshr_miss_latency::total 343341.636182                       # average ReadSharedReq mshr miss latency
system.l3.demand_avg_mshr_miss_latency::cpu.inst 151425.561798                       # average overall mshr miss latency
system.l3.demand_avg_mshr_miss_latency::cpu.data 334706.471835                       # average overall mshr miss latency
system.l3.demand_avg_mshr_miss_latency::total 334417.797063                       # average overall mshr miss latency
system.l3.overall_avg_mshr_miss_latency::cpu.inst 151425.561798                       # average overall mshr miss latency
system.l3.overall_avg_mshr_miss_latency::cpu.data 334706.471835                       # average overall mshr miss latency
system.l3.overall_avg_mshr_miss_latency::total 334417.797063                       # average overall mshr miss latency
system.l3.replacements                         431939                       # number of replacements
system.membus.snoop_filter.tot_requests        453391                       # Total number of requests made to the snoop filter.
system.membus.snoop_filter.hit_single_requests       227365                       # Number of requests hitting in the snoop filter with a single holder of the requested data.
system.membus.snoop_filter.hit_multi_requests            0                       # Number of requests hitting in the snoop filter with multiple (>1) holders of the requested data.
system.membus.snoop_filter.tot_snoops               0                       # Total number of snoops made to the snoop filter.
system.membus.snoop_filter.hit_single_snoops            0                       # Number of snoops hitting in the snoop filter with a single holder of the requested data.
system.membus.snoop_filter.hit_multi_snoops            0                       # Number of snoops hitting in the snoop filter with multiple (>1) holders of the requested data.
system.membus.pwrStateResidencyTicks::UNDEFINED 570354489000                       # Cumulative time (in ticks) in various power states
system.membus.trans_dist::ReadResp             194391                       # Transaction distribution
system.membus.trans_dist::WritebackDirty       199295                       # Transaction distribution
system.membus.trans_dist::CleanEvict            23682                       # Transaction distribution
system.membus.trans_dist::ReadExReq             31635                       # Transaction distribution
system.membus.trans_dist::ReadExResp            31635                       # Transaction distribution
system.membus.trans_dist::ReadSharedReq        194391                       # Transaction distribution
system.membus.pkt_count_system.l3.mem_side::system.mem_ctrls.port       675029                       # Packet count per connected master and slave (bytes)
system.membus.pkt_count_system.l3.mem_side::total       675029                       # Packet count per connected master and slave (bytes)
system.membus.pkt_count::total                 675029                       # Packet count per connected master and slave (bytes)
system.membus.pkt_size_system.l3.mem_side::system.mem_ctrls.port     27220544                       # Cumulative packet size per connected master and slave (bytes)
system.membus.pkt_size_system.l3.mem_side::total     27220544                       # Cumulative packet size per connected master and slave (bytes)
system.membus.pkt_size::total                27220544                       # Cumulative packet size per connected master and slave (bytes)
system.membus.snoops                                0                       # Total snoops (count)
system.membus.snoopTraffic                          0                       # Total snoop traffic (bytes)
system.membus.snoop_fanout::samples            226026                       # Request fanout histogram
system.membus.snoop_fanout::mean                    0                       # Request fanout histogram
system.membus.snoop_fanout::stdev                   0                       # Request fanout histogram
system.membus.snoop_fanout::underflows              0      0.00%      0.00% # Request fanout histogram
system.membus.snoop_fanout::0                  226026    100.00%    100.00% # Request fanout histogram
system.membus.snoop_fanout::1                       0      0.00%    100.00% # Request fanout histogram
system.membus.snoop_fanout::overflows               0      0.00%    100.00% # Request fanout histogram
system.membus.snoop_fanout::min_value               0                       # Request fanout histogram
system.membus.snoop_fanout::max_value               0                       # Request fanout histogram
system.membus.snoop_fanout::total              226026                       # Request fanout histogram
system.membus.reqLayer2.occupancy          1251038500                       # Layer occupancy (ticks)
system.membus.reqLayer2.utilization               0.2                       # Layer utilization (%)
system.membus.respLayer1.occupancy         1130135000                       # Layer occupancy (ticks)
system.membus.respLayer1.utilization              0.2                       # Layer utilization (%)
system.tol2bus.snoop_filter.tot_requests       723767                       # Total number of requests made to the snoop filter.
system.tol2bus.snoop_filter.hit_single_requests       371238                       # Number of requests hitting in the snoop filter with a single holder of the requested data.
system.tol2bus.snoop_filter.hit_multi_requests            0                       # Number of requests hitting in the snoop filter with multiple (>1) holders of the requested data.
system.tol2bus.snoop_filter.tot_snoops           3036                       # Total number of snoops made to the snoop filter.
system.tol2bus.snoop_filter.hit_single_snoops         3036                       # Number of snoops hitting in the snoop filter with a single holder of the requested data.
system.tol2bus.snoop_filter.hit_multi_snoops            0                       # Number of snoops hitting in the snoop filter with multiple (>1) holders of the requested data.
system.tol2bus.pwrStateResidencyTicks::UNDEFINED 570354489000                       # Cumulative time (in ticks) in various power states
system.tol2bus.trans_dist::ReadResp            319251                       # Transaction distribution
system.tol2bus.trans_dist::WritebackDirty       543460                       # Transaction distribution
system.tol2bus.trans_dist::WritebackClean           46                       # Transaction distribution
system.tol2bus.trans_dist::CleanEvict          287592                       # Transaction distribution
system.tol2bus.trans_dist::UpgradeReq           19531                       # Transaction distribution
system.tol2bus.trans_dist::UpgradeResp          19531                       # Transaction distribution
system.tol2bus.trans_dist::ReadExReq            33278                       # Transaction distribution
system.tol2bus.trans_dist::ReadExResp           33278                       # Transaction distribution
system.tol2bus.trans_dist::ReadCleanReq           356                       # Transaction distribution
system.tol2bus.trans_dist::ReadSharedReq       318895                       # Transaction distribution
system.tol2bus.pkt_count_system.cpu.icache.mem_side::system.l2.cpu_side          758                       # Packet count per connected master and slave (bytes)
system.tol2bus.pkt_count_system.cpu.dcache.mem_side::system.l2.cpu_side      1095069                       # Packet count per connected master and slave (bytes)
system.tol2bus.pkt_count::total               1095827                       # Packet count per connected master and slave (bytes)
system.tol2bus.pkt_size_system.cpu.icache.mem_side::system.l2.cpu_side        25728                       # Cumulative packet size per connected master and slave (bytes)
system.tol2bus.pkt_size_system.cpu.dcache.mem_side::system.l2.cpu_side     43072000                       # Cumulative packet size per connected master and slave (bytes)
system.tol2bus.pkt_size::total               43097728                       # Cumulative packet size per connected master and slave (bytes)
system.tol2bus.snoops                          479391                       # Total snoops (count)
system.tol2bus.snoopTraffic                  14248512                       # Total snoop traffic (bytes)
system.tol2bus.snoop_fanout::samples           851451                       # Request fanout histogram
system.tol2bus.snoop_fanout::mean            0.003566                       # Request fanout histogram
system.tol2bus.snoop_fanout::stdev           0.059607                       # Request fanout histogram
system.tol2bus.snoop_fanout::underflows             0      0.00%      0.00% # Request fanout histogram
system.tol2bus.snoop_fanout::0                 848415     99.64%     99.64% # Request fanout histogram
system.tol2bus.snoop_fanout::1                   3036      0.36%    100.00% # Request fanout histogram
system.tol2bus.snoop_fanout::2                      0      0.00%    100.00% # Request fanout histogram
system.tol2bus.snoop_fanout::3                      0      0.00%    100.00% # Request fanout histogram
system.tol2bus.snoop_fanout::4                      0      0.00%    100.00% # Request fanout histogram
system.tol2bus.snoop_fanout::overflows              0      0.00%    100.00% # Request fanout histogram
system.tol2bus.snoop_fanout::min_value              0                       # Request fanout histogram
system.tol2bus.snoop_fanout::max_value              1                       # Request fanout histogram
system.tol2bus.snoop_fanout::total             851451                       # Request fanout histogram
system.tol2bus.reqLayer0.occupancy          682756500                       # Layer occupancy (ticks)
system.tol2bus.reqLayer0.utilization              0.1                       # Layer utilization (%)
system.tol2bus.respLayer0.occupancy            534000                       # Layer occupancy (ticks)
system.tol2bus.respLayer0.utilization             0.0                       # Layer utilization (%)
system.tol2bus.respLayer1.occupancy         538025000                       # Layer occupancy (ticks)
system.tol2bus.respLayer1.utilization             0.1                       # Layer utilization (%)
system.tol3bus.snoop_filter.tot_requests       495255                       # Total number of requests made to the snoop filter.
system.tol3bus.snoop_filter.hit_single_requests       246460                       # Number of requests hitting in the snoop filter with a single holder of the requested data.
system.tol3bus.snoop_filter.hit_multi_requests            0                       # Number of requests hitting in the snoop filter with multiple (>1) holders of the requested data.
system.tol3bus.snoop_filter.tot_snoops         232597                       # Total number of snoops made to the snoop filter.
system.tol3bus.snoop_filter.hit_single_snoops       232597                       # Number of snoops hitting in the snoop filter with a single holder of the requested data.
system.tol3bus.snoop_filter.hit_multi_snoops            0                       # Number of snoops hitting in the snoop filter with multiple (>1) holders of the requested data.
system.tol3bus.pwrStateResidencyTicks::UNDEFINED 570354489000                       # Cumulative time (in ticks) in various power states
system.tol3bus.trans_dist::ReadResp            216966                       # Transaction distribution
system.tol3bus.trans_dist::WritebackDirty       421928                       # Transaction distribution
system.tol3bus.trans_dist::CleanEvict          256471                       # Transaction distribution
system.tol3bus.trans_dist::ReadExReq            31814                       # Transaction distribution
system.tol3bus.trans_dist::ReadExResp           31814                       # Transaction distribution
system.tol3bus.trans_dist::ReadSharedReq       216966                       # Transaction distribution
system.tol3bus.pkt_count_system.l2.mem_side::system.l3.cpu_side       744020                       # Packet count per connected master and slave (bytes)
system.tol3bus.pkt_size_system.l2.mem_side::system.l3.cpu_side     30170432                       # Cumulative packet size per connected master and slave (bytes)
system.tol3bus.snoops                          431939                       # Total snoops (count)
system.tol3bus.snoopTraffic                  12754880                       # Total snoop traffic (bytes)
system.tol3bus.snoop_fanout::samples           680734                       # Request fanout histogram
system.tol3bus.snoop_fanout::mean            0.341686                       # Request fanout histogram
system.tol3bus.snoop_fanout::stdev           0.474275                       # Request fanout histogram
system.tol3bus.snoop_fanout::underflows             0      0.00%      0.00% # Request fanout histogram
system.tol3bus.snoop_fanout::0                 448137     65.83%     65.83% # Request fanout histogram
system.tol3bus.snoop_fanout::1                 232597     34.17%    100.00% # Request fanout histogram
system.tol3bus.snoop_fanout::overflows              0      0.00%    100.00% # Request fanout histogram
system.tol3bus.snoop_fanout::min_value              0                       # Request fanout histogram
system.tol3bus.snoop_fanout::max_value              1                       # Request fanout histogram
system.tol3bus.snoop_fanout::total             680734                       # Request fanout histogram
system.tol3bus.reqLayer0.occupancy          470267985                       # Layer occupancy (ticks)
system.tol3bus.reqLayer0.utilization              0.1                       # Layer utilization (%)
system.tol3bus.respLayer0.occupancy         373170014                       # Layer occupancy (ticks)
system.tol3bus.respLayer0.utilization             0.1                       # Layer utilization (%)

---------- End Simulation Statistics   ----------
